LAMMPS (20 Nov 2019)
# Nanodroplet of water on the graphene nanoribbon #

# ------------------------ INITIALIZATION ----------------------------
echo			both
units			metal
boundary		p p p
atom_style		full
bond_style		harmonic
angle_style		harmonic
dimension		3
neighbor		0.3 bin

# ----------------------- ATOM DEFINITION ----------------------------
read_data pos1.data
  orthogonal box = (-36.5268 -10.3138 -46.4164) to (84.4197 110.992 130.921)
  reading atoms ...
  6705 atoms
  scanning bonds ...
  scanning angles ...
  reading bonds ...
  6081 bonds
  reading angles ...
  7337 angles

# ------------------------ FORCE FIELDS ------------------------------
pair_style hybrid airebo 2.5 0 3 lj/cut/tip4p/long 1 2 1 1 0.1250 9 8
pair_coeff * * lj/cut/tip4p/long 0.0 0.0
pair_coeff 1 2 lj/cut/tip4p/long 0.0 0.0
pair_coeff 2 2 lj/cut/tip4p/long 0.0 0.0
pair_coeff 2 3 lj/cut/tip4p/long 0.0032399 3.19
pair_coeff 1 1 lj/cut/tip4p/long 0.16275 3.16435 # O-O (water TIP4P/2005)
pair_coeff 1 3 lj/cut/tip4p/long 0.0032399 3.19 # O-C (amber)
pair_coeff * * airebo CH.airebo C H NULL
Reading potential file CH.airebo with DATE: 2011-10-25
kspace_style	pppm/tip4p 1.0e-4

#bond_coeff 1 0.0 0.9572 # TIP4P/epsilon
bond_coeff 1 600.0  0.9572 # TIP4P/epsilon
bond_coeff 2 610.0 1.42 # GROMOS53A6

#angle_coeff 1 2.6018473 104.52 # TIP4P/epsilon
angle_coeff 1 75.0 104.52 # TIP4P/epsilon
angle_coeff  2 90.0 120.0 # GROMOS53A6

# Grouping #
group g_C type 3
2016 atoms in group g_C
group g_O type 1
1563 atoms in group g_O
group g_H type 2
3126 atoms in group g_H
group g_W union g_O g_H
4689 atoms in group g_W

compute 3 all pe/atom
compute 4 all stress/atom NULL virial

fix npt all npt temp 500 500 .5 x 0.0 0.0 .5 y 0.0 0.0 .5
fix bp all balance 1000 1 shift z 10 1

thermo_style custom step temp ke pe press vol
timestep 0.00001
run 500
PPPM initialization ...
  extracting TIP4P info from pair style
  G vector (1/distance) = 0.284733
  grid = 54 54 72
  stencil order = 5
  estimated absolute RMS force accuracy = 0.00156748
  estimated relative force accuracy = 0.000108856
  3d grid and FFT values/proc = 268037 209952
  update every 1 steps, delay 10 steps, check yes
Step Temp KinEng PotEng Press Volume
0            0            0    1068043.8   -489428.23    2601803.1
Loop time of 27.2247 on 1 procs for 500 steps with 6705 atoms

#group g_fix region r_fix
variable frc equal 2e-4 # force to be applied to the water molecule
variable ymn equal ylo+20
variable ymx equal yhi-20
variable xmn equal xlo+20
variable xmx equal xhi-20
region middle block -16.6586415455033 64.5515785455034 9.58782763505707 91.090173364943 -5 5 units box
group middle region middle
1596 atoms in group middle
unfix npt

newton on

change_box all boundary p p p

reset_timestep 0
velocity middle set NULL NULL -20.0 sum no units box
velocity g_O set 0.0 0.0 -20.0 sum yes units box
velocity g_H set 0.0 0.0 -20.0 sum yes units box
#fix	eva g_W evaporate 10000 20 middle 38277 molecule yes
fix grav g_W gravity 5.0 vector 0 0 -20
fix kick g_W addforce 0.0002 0.0 0.0
timestep 0.00001

fix fxlan g_W langevin 500.0 500.0 100.0 48279
fix 1 all nve
fix 3 all temp/rescale 1 500.0 500.0 0.0 1.0

fix 		mysf1 g_C setforce 0.0 NULL 0.0
velocity	g_C set NULL NULL 0

compute myack all ackland/atom
compute myke all ke/atom
compute mype all pe/atom
compute Ek_Graphene g_C reduce sum c_myke
compute Ek_Water g_W reduce sum c_myke
compute Ep_Graphene g_C reduce sum c_mype
compute Ep_Water g_W reduce sum c_mype

compute gofr all rdf 1000  1 1  2 2  1 2  # O-O, H-H, O-H
compute gfr all rdf 1000  1 3  3 3  2 3  # O-O, H-H, O-H
fix rdf all ave/time 100 10 1000 c_gofr[*] file spce-rdfgo.dat mode vector
fix rdf all ave/time 100 10 1000 c_gfr[*] file spce-rdfg.dat mode vector

dump mydump1 all atom 10 dump.Graphene3drop500K.dump

thermo 1000
thermo_style custom step atoms temp pe c_Ep_Graphene c_Ep_Water ke c_Ek_Graphene c_Ek_Water etotal evdwl ecoul epair enthalpy vol density press
thermo_modify lost ignore flush yes
run 	500000
PPPM initialization ...
  extracting TIP4P info from pair style
  G vector (1/distance) = 0.284598
  grid = 54 54 72
  stencil order = 5
  estimated absolute RMS force accuracy = 0.00157223
  estimated relative force accuracy = 0.000109185
  3d grid and FFT values/proc = 268037 209952
  update every 1 steps, delay 10 steps, check yes
Step Atoms Temp PotEng c_Ep_Graphene c_Ep_Water KinEng c_Ek_Graphene c_Ek_Water TotEng E_vdwl E_coul E_pair Enthalpy Volume Density Press
0     6705    1026239.9    149208.25    2.4213231    149205.83    889298.46   0.73214396    889297.73    1038506.7   -8429.0833            0   -14340.145    1471349.9      2611706  0.033298096    265531.88
Averages over the last 251 of 501 rows, steps 250000 to 500000:
Atoms Temp PotEng c_Ep_Graphene c_Ep_Water KinEng c_Ek_Graphene c_Ek_Water TotEng E_vdwl E_coul E_pair Enthalpy Volume Density Press
6705 500 56403.9 21524 34879.9 433.28 1.3958 431.884 56837.2 52516.2 0 47086.3 189052 2.61171e+06 0.0332981 81108.7
Loop time of 104978 on 1 procs for 500000 steps with 6705 atoms

print "Selesai"
Selesai
# End #
