LAMMPS (20 Nov 2019)
# Nanodroplet of water on the graphene nanoribbon #

# ------------------------ INITIALIZATION ----------------------------
echo			both
units			metal
boundary		p p p
atom_style		full
bond_style		harmonic
angle_style		harmonic
dimension		3

# ----------------------- ATOM DEFINITION ----------------------------
read_data pos1.data
  orthogonal box = (-36.5268 -10.3138 -46.4164) to (84.4197 110.992 74.921)
  reading atoms ...
  3579 atoms
  scanning bonds ...
  scanning angles ...
  reading bonds ...
  3997 bonds
  reading angles ...
  6295 angles

# ------------------------ FORCE FIELDS ------------------------------
pair_style		hybrid airebo 2.5 0 3 lj/cut/tip4p/long 1 2 1 1 0.1250 9 8
pair_coeff * * lj/cut/tip4p/long 0.0 0.0
pair_coeff 1 2 lj/cut/tip4p/long 0.0 0.0
pair_coeff 2 2 lj/cut/tip4p/long 0.0 0.0
pair_coeff 2 3 lj/cut/tip4p/long 0.0032399 3.19
pair_coeff 1 1 lj/cut/tip4p/long 0.16275 3.16435 # O-O (water TIP4P/2005)
pair_coeff 1 3 lj/cut/tip4p/long 0.0032399 3.19 # O-C (amber)
pair_coeff * * airebo CH.airebo C H NULL
Reading potential file CH.airebo with DATE: 2011-10-25
kspace_style	pppm/tip4p 1.0e-4

bond_coeff 1 600.0  0.9572 # TIP4P/epsilon
bond_coeff 2 610.0 1.42 # GROMOS53A6

angle_coeff 1 75.0 104.52 # TIP4P/epsilon
angle_coeff  2 90.0 120.0 # GROMOS53A6

# Grouping #
group g_C type 3
2016 atoms in group g_C
group g_O type 1
521 atoms in group g_O
group g_H type 2
1042 atoms in group g_H
group g_W union g_O g_H
1563 atoms in group g_W

compute 3 all pe/atom
compute 4 all stress/atom NULL virial

fix npt all npt temp 500 500 .5 x 0.0 0.0 .5 y 0.0 0.0 .5
fix bp all balance 250 1 shift z 10 1

dump mydump all atom 10 dump.Graphene1.dump
thermo_style custom step temp ke pe press vol
timestep 0.00001
run 500
PPPM initialization ...
  extracting TIP4P info from pair style
  G vector (1/distance) = 0.266982
  grid = 45 45 45
  stencil order = 5
  estimated absolute RMS force accuracy = 0.00161818
  estimated relative force accuracy = 0.000112376
  3d grid and FFT values/proc = 125000 91125
  update every 1 steps, delay 10 steps, check yes
Step Temp KinEng PotEng Press Volume
0            0            0    333808.31   -219659.97      1780200
Loop time of 12.8034 on 1 procs for 500 steps with 3579 atoms

variable frc equal 2e-4 # force to be applied to the water molecule
variable ymn equal ylo+20
variable ymx equal yhi-20
variable xmn equal xlo+20
variable xmx equal xhi-20
region middle block -16.6439020233994 64.5368390233995 9.56329042639621 91.1147105736039 -5 5 units box
group middle region middle
1634 atoms in group middle
unfix npt

newton on

change_box all boundary p p p

reset_timestep 0
velocity middle set NULL NULL -20.0 sum no units box
velocity g_O set 0.0 0.0 -20.0 sum yes units box
velocity g_H set 0.0 0.0 -20.0 sum yes units box
#fix	eva g_W evaporate 10000 125 middle 38277 molecule yes
fix grav g_W gravity 5.0 vector 0 0 -20
fix kick g_W addforce 0.0002 0.0 0.0
timestep 0.00001

fix fxlan g_W langevin 500.0 500.0 100.0 48279
fix 1 all nve
fix 3 all temp/rescale 1 500.0 500.0 1.0 1.0

fix 		mysf1 g_C setforce 0.0 NULL 0.0
velocity	g_C set NULL NULL 0

compute myack all ackland/atom
compute myke all ke/atom
compute mype all pe/atom
compute Ek_Graphene g_C reduce sum c_myke
compute Ek_Water g_W reduce sum c_myke
compute Ep_Graphene g_C reduce sum c_mype
compute Ep_Water g_W reduce sum c_mype

compute gofr all rdf 1000  1 1  2 2  1 2  # O-O, H-H, O-H
compute gfr all rdf 1000  1 3  3 3  2 3  # O-C, C-C, O-C
fix rdf all ave/time 100 10 1000 c_gofr[*] file spce-rdfgo.dat mode vector
fix rdf all ave/time 100 10 1000 c_gfr[*] file spce-rdfg.dat mode vector

dump mydump1 all atom 100 dump.Graphene500.dump
dump mydump2 all cfg 5000 dump_*.cfg mass type xs ys zs id c_mype
dump_modify mydump2 element O H C

thermo 1000
thermo_style custom step atoms temp pe c_Ep_Graphene c_Ep_Water ke c_Ek_Graphene c_Ek_Water etotal evdwl ecoul epair enthalpy vol density press
thermo_modify lost ignore flush yes
run 	100000
PPPM initialization ...
  extracting TIP4P info from pair style
  G vector (1/distance) = 0.266694
  grid = 45 45 45
  stencil order = 5
  estimated absolute RMS force accuracy = 0.00162402
  estimated relative force accuracy = 0.000112782
  3d grid and FFT values/proc = 125000 91125
  update every 1 steps, delay 10 steps, check yes
Step Atoms Temp PotEng c_Ep_Graphene c_Ep_Water KinEng c_Ek_Graphene c_Ek_Water TotEng E_vdwl E_coul E_pair Enthalpy Volume Density Press
0     3579    647880.33    28401.667    2.1683636    28399.499    299639.99   0.63174557    299639.36    328041.65   -3208.5706            0   -5057.1381    489831.08    1787262.7  0.031217197    145034.76
Averages over the last 51 of 101 rows, steps 50000 to 100000:
Atoms Temp PotEng c_Ep_Graphene c_Ep_Water KinEng c_Ek_Graphene c_Ek_Water TotEng E_vdwl E_coul E_pair Enthalpy Volume Density Press
3579 500.019 9639.2 5421.84 4217.36 231.255 4.49241 226.763 9870.45 9955.9 0 8195.87 46708.2 1.78726e+06 0.0312172 33022.9
Loop time of 4349.69 on 1 procs for 100000 steps with 3579 atoms

print "Selesai"
Selesai
# End #
